<?xml version="1.0" encoding="UTF-8"?>

<!-- generated on 2025-12-02 10:13:42 by Eclipse SUMO netedit Version 1.19.0
<configuration xmlns:xsi="http://www.w3.org/2001/XMLSchema-instance" xsi:noNamespaceSchemaLocation="http://sumo.dlr.de/xsd/neteditConfiguration.xsd">

    <input>
        <sumo-net-file value="E:\GGALVAO\BOLSA\Trabalhos\RedeNeuronal_2_cells\TLCS\intersection\network_5_intersections.net.xml"/>
    </input>

    <output>
        <output-file value="E:\GGALVAO\BOLSA\Trabalhos\RedeNeuronal_2_cells\TLCS\intersection\network_5_intersections.net.xml"/>
    </output>

    <processing>
        <geometry.min-radius.fix.railways value="false"/>
        <geometry.max-grade.fix value="false"/>
        <offset.disable-normalization value="true"/>
        <lefthand value="0"/>
    </processing>

    <junctions>
        <no-internal-links value="false"/>
        <no-turnarounds value="true"/>
        <junctions.corner-detail value="5"/>
        <junctions.limit-turn-speed value="5.50"/>
        <rectangular-lane-cut value="0"/>
    </junctions>

    <pedestrian>
        <walkingareas value="1"/>
    </pedestrian>

</configuration>
-->

<net version="1.16" junctionCornerDetail="5" walkingareas="true" limitTurnSpeed="5.50" xmlns:xsi="http://www.w3.org/2001/XMLSchema-instance" xsi:noNamespaceSchemaLocation="http://sumo.dlr.de/xsd/net_file.xsd">

    <location netOffset="0.00,0.00" convBoundary="-500.00,-900.00,900.00,-100.00" origBoundary="-10000000000.00,-10000000000.00,10000000000.00,10000000000.00" projParameter="!"/>

    <edge id=":J0_0" function="internal">
        <lane id=":J0_0_0" index="0" disallow="pedestrian" speed="8.53" length="8.81" shape="-404.80,-385.10 -405.43,-389.52 -407.33,-392.68 -407.90,-393.02"/>
    </edge>
    <edge id=":J0_1" function="internal">
        <lane id=":J0_1_0" index="0" disallow="pedestrian" speed="13.89" length="29.80" shape="-404.80,-385.10 -404.80,-414.90"/>
    </edge>
    <edge id=":J0_2" function="internal">
        <lane id=":J0_2_0" index="0" disallow="pedestrian" speed="10.78" length="12.74" shape="-401.60,-385.10 -400.57,-392.32 -397.77,-396.99"/>
    </edge>
    <edge id=":J0_12" function="internal">
        <lane id=":J0_12_0" index="0" disallow="pedestrian" speed="8.53" length="7.47" shape="-407.90,-393.02 -410.48,-394.57 -414.90,-395.20"/>
    </edge>
    <edge id=":J0_13" function="internal">
        <lane id=":J0_13_0" index="0" disallow="pedestrian" speed="10.78" length="13.87" shape="-397.77,-396.99 -397.48,-397.48 -392.32,-400.57 -385.10,-401.60"/>
    </edge>
    <edge id=":J0_3" function="internal">
        <lane id=":J0_3_0" index="0" disallow="pedestrian" speed="8.53" length="8.81" shape="-385.10,-395.20 -389.52,-394.57 -392.68,-392.67 -393.02,-392.10"/>
    </edge>
    <edge id=":J0_4" function="internal">
        <lane id=":J0_4_0" index="0" disallow="pedestrian" speed="13.89" length="29.80" shape="-385.10,-395.20 -414.90,-395.20"/>
    </edge>
    <edge id=":J0_5" function="internal">
        <lane id=":J0_5_0" index="0" disallow="pedestrian" speed="10.78" length="12.74" shape="-385.10,-398.40 -392.32,-399.43 -396.99,-402.23"/>
    </edge>
    <edge id=":J0_14" function="internal">
        <lane id=":J0_14_0" index="0" disallow="pedestrian" speed="8.53" length="7.47" shape="-393.02,-392.10 -394.57,-389.52 -395.20,-385.10"/>
    </edge>
    <edge id=":J0_15" function="internal">
        <lane id=":J0_15_0" index="0" disallow="pedestrian" speed="10.78" length="13.87" shape="-396.99,-402.23 -397.48,-402.52 -400.57,-407.68 -401.60,-414.90"/>
    </edge>
    <edge id=":J0_6" function="internal">
        <lane id=":J0_6_0" index="0" disallow="pedestrian" speed="8.53" length="8.81" shape="-395.20,-414.90 -394.57,-410.48 -392.67,-407.32 -392.10,-406.98"/>
    </edge>
    <edge id=":J0_7" function="internal">
        <lane id=":J0_7_0" index="0" disallow="pedestrian" speed="13.89" length="29.80" shape="-395.20,-414.90 -395.20,-385.10"/>
    </edge>
    <edge id=":J0_8" function="internal">
        <lane id=":J0_8_0" index="0" disallow="pedestrian" speed="10.78" length="12.74" shape="-398.40,-414.90 -399.43,-407.68 -402.23,-403.01"/>
    </edge>
    <edge id=":J0_16" function="internal">
        <lane id=":J0_16_0" index="0" disallow="pedestrian" speed="8.53" length="7.47" shape="-392.10,-406.98 -389.52,-405.43 -385.10,-404.80"/>
    </edge>
    <edge id=":J0_17" function="internal">
        <lane id=":J0_17_0" index="0" disallow="pedestrian" speed="10.78" length="13.87" shape="-402.23,-403.01 -402.52,-402.52 -407.68,-399.43 -414.90,-398.40"/>
    </edge>
    <edge id=":J0_9" function="internal">
        <lane id=":J0_9_0" index="0" disallow="pedestrian" speed="8.53" length="8.81" shape="-414.90,-404.80 -410.48,-405.43 -407.32,-407.33 -406.98,-407.90"/>
    </edge>
    <edge id=":J0_10" function="internal">
        <lane id=":J0_10_0" index="0" disallow="pedestrian" speed="13.89" length="29.80" shape="-414.90,-404.80 -385.10,-404.80"/>
    </edge>
    <edge id=":J0_11" function="internal">
        <lane id=":J0_11_0" index="0" disallow="pedestrian" speed="10.78" length="12.74" shape="-414.90,-401.60 -407.68,-400.57 -403.01,-397.77"/>
    </edge>
    <edge id=":J0_18" function="internal">
        <lane id=":J0_18_0" index="0" disallow="pedestrian" speed="8.53" length="7.47" shape="-406.98,-407.90 -405.43,-410.48 -404.80,-414.90"/>
    </edge>
    <edge id=":J0_19" function="internal">
        <lane id=":J0_19_0" index="0" disallow="pedestrian" speed="10.78" length="13.87" shape="-403.01,-397.77 -402.52,-397.48 -399.43,-392.32 -398.40,-385.10"/>
    </edge>
    <edge id=":J0_c0" function="crossing" crossingEdges="TL0_N N_TL0">
        <lane id=":J0_c0_0" index="0" allow="pedestrian" speed="2.78" length="12.80" width="7.00" shape="-393.60,-388.60 -406.40,-388.60"/>
    </edge>
    <edge id=":J0_c1" function="crossing" crossingEdges="TL0_TL TL_TL0">
        <lane id=":J0_c1_0" index="0" allow="pedestrian" speed="2.78" length="12.80" width="7.00" shape="-388.60,-406.40 -388.60,-393.60"/>
    </edge>
    <edge id=":J0_c2" function="crossing" crossingEdges="TL0_S S_TL0">
        <lane id=":J0_c2_0" index="0" allow="pedestrian" speed="2.78" length="12.80" width="7.00" shape="-406.40,-411.40 -393.60,-411.40"/>
    </edge>
    <edge id=":J0_c3" function="crossing" crossingEdges="TL0_W W_TL0">
        <lane id=":J0_c3_0" index="0" allow="pedestrian" speed="2.78" length="12.80" width="7.00" shape="-411.40,-393.60 -411.40,-406.40"/>
    </edge>
    <edge id=":J0_w0" function="walkingarea">
        <lane id=":J0_w0_0" index="0" allow="pedestrian" speed="2.78" length="6.88" width="7.00" shape="-414.90,-393.60 -414.90,-386.60 -413.40,-385.10 -406.40,-385.10 -406.64,-387.70 -407.34,-389.82 -408.52,-391.47 -410.18,-392.66 -412.30,-393.36"/>
    </edge>
    <edge id=":J0_w1" function="walkingarea">
        <lane id=":J0_w1_0" index="0" allow="pedestrian" speed="2.78" length="6.88" width="7.00" shape="-393.60,-385.10 -386.60,-385.10 -385.10,-386.60 -385.10,-393.60 -387.70,-393.36 -389.82,-392.66 -391.47,-391.48 -392.66,-389.82 -393.36,-387.70"/>
    </edge>
    <edge id=":J0_w2" function="walkingarea">
        <lane id=":J0_w2_0" index="0" allow="pedestrian" speed="2.78" length="6.88" width="7.00" shape="-385.10,-406.40 -385.10,-413.40 -386.60,-414.90 -393.60,-414.90 -393.36,-412.30 -392.66,-410.18 -391.48,-408.53 -389.82,-407.34 -387.70,-406.64"/>
    </edge>
    <edge id=":J0_w3" function="walkingarea">
        <lane id=":J0_w3_0" index="0" allow="pedestrian" speed="2.78" length="6.88" width="7.00" shape="-406.40,-414.90 -413.40,-414.90 -414.90,-413.40 -414.90,-406.40 -412.30,-406.64 -410.18,-407.34 -408.53,-408.52 -407.34,-410.18 -406.64,-412.30"/>
    </edge>
    <edge id=":J1_0" function="internal">
        <lane id=":J1_0_0" index="0" disallow="pedestrian" speed="8.53" length="8.81" shape="-4.80,-385.10 -5.43,-389.52 -7.33,-392.68 -7.90,-393.02"/>
    </edge>
    <edge id=":J1_1" function="internal">
        <lane id=":J1_1_0" index="0" disallow="pedestrian" speed="13.89" length="29.80" shape="-4.80,-385.10 -4.80,-414.90"/>
    </edge>
    <edge id=":J1_2" function="internal">
        <lane id=":J1_2_0" index="0" disallow="pedestrian" speed="10.78" length="12.74" shape="-1.60,-385.10 -0.57,-392.32 2.23,-396.99"/>
    </edge>
    <edge id=":J1_12" function="internal">
        <lane id=":J1_12_0" index="0" disallow="pedestrian" speed="8.53" length="7.47" shape="-7.90,-393.02 -10.48,-394.57 -14.90,-395.20"/>
    </edge>
    <edge id=":J1_13" function="internal">
        <lane id=":J1_13_0" index="0" disallow="pedestrian" speed="10.78" length="13.87" shape="2.23,-396.99 2.53,-397.48 7.68,-400.57 14.90,-401.60"/>
    </edge>
    <edge id=":J1_3" function="internal">
        <lane id=":J1_3_0" index="0" disallow="pedestrian" speed="8.53" length="8.81" shape="14.90,-395.20 10.48,-394.57 7.33,-392.67 6.98,-392.10"/>
    </edge>
    <edge id=":J1_4" function="internal">
        <lane id=":J1_4_0" index="0" disallow="pedestrian" speed="13.89" length="29.80" shape="14.90,-395.20 -14.90,-395.20"/>
    </edge>
    <edge id=":J1_5" function="internal">
        <lane id=":J1_5_0" index="0" disallow="pedestrian" speed="10.78" length="12.74" shape="14.90,-398.40 7.68,-399.43 3.01,-402.23"/>
    </edge>
    <edge id=":J1_14" function="internal">
        <lane id=":J1_14_0" index="0" disallow="pedestrian" speed="8.53" length="7.47" shape="6.98,-392.10 5.43,-389.52 4.80,-385.10"/>
    </edge>
    <edge id=":J1_15" function="internal">
        <lane id=":J1_15_0" index="0" disallow="pedestrian" speed="10.78" length="13.87" shape="3.01,-402.23 2.53,-402.52 -0.57,-407.68 -1.60,-414.90"/>
    </edge>
    <edge id=":J1_6" function="internal">
        <lane id=":J1_6_0" index="0" disallow="pedestrian" speed="8.53" length="8.81" shape="4.80,-414.90 5.43,-410.48 7.33,-407.32 7.90,-406.98"/>
    </edge>
    <edge id=":J1_7" function="internal">
        <lane id=":J1_7_0" index="0" disallow="pedestrian" speed="13.89" length="29.80" shape="4.80,-414.90 4.80,-385.10"/>
    </edge>
    <edge id=":J1_8" function="internal">
        <lane id=":J1_8_0" index="0" disallow="pedestrian" speed="10.78" length="12.74" shape="1.60,-414.90 0.57,-407.68 -2.23,-403.01"/>
    </edge>
    <edge id=":J1_16" function="internal">
        <lane id=":J1_16_0" index="0" disallow="pedestrian" speed="8.53" length="7.47" shape="7.90,-406.98 10.48,-405.43 14.90,-404.80"/>
    </edge>
    <edge id=":J1_17" function="internal">
        <lane id=":J1_17_0" index="0" disallow="pedestrian" speed="10.78" length="13.87" shape="-2.23,-403.01 -2.53,-402.52 -7.68,-399.43 -14.90,-398.40"/>
    </edge>
    <edge id=":J1_9" function="internal">
        <lane id=":J1_9_0" index="0" disallow="pedestrian" speed="8.53" length="8.81" shape="-14.90,-404.80 -10.48,-405.43 -7.32,-407.33 -6.98,-407.90"/>
    </edge>
    <edge id=":J1_10" function="internal">
        <lane id=":J1_10_0" index="0" disallow="pedestrian" speed="13.89" length="29.80" shape="-14.90,-404.80 14.90,-404.80"/>
    </edge>
    <edge id=":J1_11" function="internal">
        <lane id=":J1_11_0" index="0" disallow="pedestrian" speed="10.78" length="12.74" shape="-14.90,-401.60 -7.68,-400.57 -3.01,-397.77"/>
    </edge>
    <edge id=":J1_18" function="internal">
        <lane id=":J1_18_0" index="0" disallow="pedestrian" speed="8.53" length="7.47" shape="-6.98,-407.90 -5.43,-410.48 -4.80,-414.90"/>
    </edge>
    <edge id=":J1_19" function="internal">
        <lane id=":J1_19_0" index="0" disallow="pedestrian" speed="10.78" length="13.87" shape="-3.01,-397.77 -2.53,-397.48 0.57,-392.32 1.60,-385.10"/>
    </edge>
    <edge id=":J1_c0" function="crossing" crossingEdges="TL_TL3 TL3_TL">
        <lane id=":J1_c0_0" index="0" allow="pedestrian" speed="2.78" length="12.80" width="7.00" shape="6.40,-388.60 -6.40,-388.60"/>
    </edge>
    <edge id=":J1_c1" function="crossing" crossingEdges="TL_TL2 TL2_TL">
        <lane id=":J1_c1_0" index="0" allow="pedestrian" speed="2.78" length="12.80" width="7.00" shape="11.40,-406.40 11.40,-393.60"/>
    </edge>
    <edge id=":J1_c2" function="crossing" crossingEdges="TL_TL4 TL4_TL">
        <lane id=":J1_c2_0" index="0" allow="pedestrian" speed="2.78" length="12.80" width="7.00" shape="-6.40,-411.40 6.40,-411.40"/>
    </edge>
    <edge id=":J1_c3" function="crossing" crossingEdges="TL_TL0 TL0_TL">
        <lane id=":J1_c3_0" index="0" allow="pedestrian" speed="2.78" length="12.80" width="7.00" shape="-11.40,-393.60 -11.40,-406.40"/>
    </edge>
    <edge id=":J1_w0" function="walkingarea">
        <lane id=":J1_w0_0" index="0" allow="pedestrian" speed="2.78" length="6.88" width="7.00" shape="-14.90,-393.60 -14.90,-386.60 -13.40,-385.10 -6.40,-385.10 -6.64,-387.70 -7.34,-389.82 -8.53,-391.47 -10.18,-392.66 -12.30,-393.36"/>
    </edge>
    <edge id=":J1_w1" function="walkingarea">
        <lane id=":J1_w1_0" index="0" allow="pedestrian" speed="2.78" length="6.88" width="7.00" shape="6.40,-385.10 13.40,-385.10 14.90,-386.60 14.90,-393.60 12.30,-393.36 10.18,-392.66 8.53,-391.48 7.34,-389.82 6.64,-387.70"/>
    </edge>
    <edge id=":J1_w2" function="walkingarea">
        <lane id=":J1_w2_0" index="0" allow="pedestrian" speed="2.78" length="6.88" width="7.00" shape="14.90,-406.40 14.90,-413.40 13.40,-414.90 6.40,-414.90 6.64,-412.30 7.34,-410.18 8.53,-408.53 10.18,-407.34 12.30,-406.64"/>
    </edge>
    <edge id=":J1_w3" function="walkingarea">
        <lane id=":J1_w3_0" index="0" allow="pedestrian" speed="2.78" length="6.88" width="7.00" shape="-6.40,-414.90 -13.40,-414.90 -14.90,-413.40 -14.90,-406.40 -12.30,-406.64 -10.18,-407.34 -8.53,-408.52 -7.34,-410.18 -6.64,-412.30"/>
    </edge>
    <edge id=":J10_w0" function="walkingarea">
        <lane id=":J10_w0_0" index="0" allow="pedestrian" speed="2.78" length="19.80" width="7.00" shape="100.00,-793.60 100.00,-786.60 100.00,-813.40 100.00,-806.40"/>
    </edge>
    <edge id=":J11_w0" function="walkingarea">
        <lane id=":J11_w0_0" index="0" allow="pedestrian" speed="2.78" length="19.80" width="7.00" shape="-100.00,-806.40 -100.00,-813.40 -100.00,-786.60 -100.00,-793.60"/>
    </edge>
    <edge id=":J12_w0" function="walkingarea">
        <lane id=":J12_w0_0" index="0" allow="pedestrian" speed="2.78" length="19.80" width="7.00" shape="6.40,-900.00 13.40,-900.00 -13.40,-900.00 -6.40,-900.00"/>
    </edge>
    <edge id=":J13_0" function="internal">
        <lane id=":J13_0_0" index="0" disallow="pedestrian" speed="8.53" length="8.81" shape="-4.80,-185.10 -5.43,-189.52 -7.33,-192.68 -7.90,-193.02"/>
    </edge>
    <edge id=":J13_1" function="internal">
        <lane id=":J13_1_0" index="0" disallow="pedestrian" speed="13.89" length="29.80" shape="-4.80,-185.10 -4.80,-214.90"/>
    </edge>
    <edge id=":J13_2" function="internal">
        <lane id=":J13_2_0" index="0" disallow="pedestrian" speed="10.78" length="12.74" shape="-1.60,-185.10 -0.57,-192.32 2.23,-196.99"/>
    </edge>
    <edge id=":J13_12" function="internal">
        <lane id=":J13_12_0" index="0" disallow="pedestrian" speed="8.53" length="7.47" shape="-7.90,-193.02 -10.48,-194.57 -14.90,-195.20"/>
    </edge>
    <edge id=":J13_13" function="internal">
        <lane id=":J13_13_0" index="0" disallow="pedestrian" speed="10.78" length="13.87" shape="2.23,-196.99 2.53,-197.47 7.68,-200.57 14.90,-201.60"/>
    </edge>
    <edge id=":J13_3" function="internal">
        <lane id=":J13_3_0" index="0" disallow="pedestrian" speed="8.53" length="8.81" shape="14.90,-195.20 10.48,-194.57 7.32,-192.67 6.98,-192.10"/>
    </edge>
    <edge id=":J13_4" function="internal">
        <lane id=":J13_4_0" index="0" disallow="pedestrian" speed="13.89" length="29.80" shape="14.90,-195.20 -14.90,-195.20"/>
    </edge>
    <edge id=":J13_5" function="internal">
        <lane id=":J13_5_0" index="0" disallow="pedestrian" speed="10.78" length="12.74" shape="14.90,-198.40 7.68,-199.43 3.01,-202.23"/>
    </edge>
    <edge id=":J13_14" function="internal">
        <lane id=":J13_14_0" index="0" disallow="pedestrian" speed="8.53" length="7.47" shape="6.98,-192.10 5.43,-189.52 4.80,-185.10"/>
    </edge>
    <edge id=":J13_15" function="internal">
        <lane id=":J13_15_0" index="0" disallow="pedestrian" speed="10.78" length="13.87" shape="3.01,-202.23 2.53,-202.53 -0.57,-207.68 -1.60,-214.90"/>
    </edge>
    <edge id=":J13_6" function="internal">
        <lane id=":J13_6_0" index="0" disallow="pedestrian" speed="8.53" length="8.81" shape="4.80,-214.90 5.43,-210.48 7.33,-207.32 7.90,-206.98"/>
    </edge>
    <edge id=":J13_7" function="internal">
        <lane id=":J13_7_0" index="0" disallow="pedestrian" speed="13.89" length="29.80" shape="4.80,-214.90 4.80,-185.10"/>
    </edge>
    <edge id=":J13_8" function="internal">
        <lane id=":J13_8_0" index="0" disallow="pedestrian" speed="10.78" length="12.74" shape="1.60,-214.90 0.57,-207.68 -2.23,-203.01"/>
    </edge>
    <edge id=":J13_16" function="internal">
        <lane id=":J13_16_0" index="0" disallow="pedestrian" speed="8.53" length="7.47" shape="7.90,-206.98 10.48,-205.43 14.90,-204.80"/>
    </edge>
    <edge id=":J13_17" function="internal">
        <lane id=":J13_17_0" index="0" disallow="pedestrian" speed="10.78" length="13.87" shape="-2.23,-203.01 -2.53,-202.53 -7.68,-199.43 -14.90,-198.40"/>
    </edge>
    <edge id=":J13_9" function="internal">
        <lane id=":J13_9_0" index="0" disallow="pedestrian" speed="8.53" length="8.81" shape="-14.90,-204.80 -10.48,-205.43 -7.33,-207.33 -6.98,-207.90"/>
    </edge>
    <edge id=":J13_10" function="internal">
        <lane id=":J13_10_0" index="0" disallow="pedestrian" speed="13.89" length="29.80" shape="-14.90,-204.80 14.90,-204.80"/>
    </edge>
    <edge id=":J13_11" function="internal">
        <lane id=":J13_11_0" index="0" disallow="pedestrian" speed="10.78" length="12.74" shape="-14.90,-201.60 -7.68,-200.57 -3.01,-197.77"/>
    </edge>
    <edge id=":J13_18" function="internal">
        <lane id=":J13_18_0" index="0" disallow="pedestrian" speed="8.53" length="7.47" shape="-6.98,-207.90 -5.43,-210.48 -4.80,-214.90"/>
    </edge>
    <edge id=":J13_19" function="internal">
        <lane id=":J13_19_0" index="0" disallow="pedestrian" speed="10.78" length="13.87" shape="-3.01,-197.77 -2.53,-197.47 0.57,-192.32 1.60,-185.10"/>
    </edge>
    <edge id=":J13_c0" function="crossing" crossingEdges="TL3_N N_TL3">
        <lane id=":J13_c0_0" index="0" allow="pedestrian" speed="2.78" length="12.80" width="7.00" shape="6.40,-188.60 -6.40,-188.60"/>
    </edge>
    <edge id=":J13_c1" function="crossing" crossingEdges="TL3_E E_TL3">
        <lane id=":J13_c1_0" index="0" allow="pedestrian" speed="2.78" length="12.80" width="7.00" shape="11.40,-206.40 11.40,-193.60"/>
    </edge>
    <edge id=":J13_c2" function="crossing" crossingEdges="TL3_TL TL_TL3">
        <lane id=":J13_c2_0" index="0" allow="pedestrian" speed="2.78" length="12.80" width="7.00" shape="-6.40,-211.40 6.40,-211.40"/>
    </edge>
    <edge id=":J13_c3" function="crossing" crossingEdges="TL3_W W_TL3">
        <lane id=":J13_c3_0" index="0" allow="pedestrian" speed="2.78" length="12.80" width="7.00" shape="-11.40,-193.60 -11.40,-206.40"/>
    </edge>
    <edge id=":J13_w0" function="walkingarea">
        <lane id=":J13_w0_0" index="0" allow="pedestrian" speed="2.78" length="6.88" width="7.00" shape="-14.90,-193.60 -14.90,-186.60 -13.40,-185.10 -6.40,-185.10 -6.64,-187.70 -7.34,-189.82 -8.53,-191.47 -10.18,-192.66 -12.30,-193.36"/>
    </edge>
    <edge id=":J13_w1" function="walkingarea">
        <lane id=":J13_w1_0" index="0" allow="pedestrian" speed="2.78" length="6.88" width="7.00" shape="6.40,-185.10 13.40,-185.10 14.90,-186.60 14.90,-193.60 12.30,-193.36 10.18,-192.66 8.53,-191.47 7.34,-189.82 6.64,-187.70"/>
    </edge>
    <edge id=":J13_w2" function="walkingarea">
        <lane id=":J13_w2_0" index="0" allow="pedestrian" speed="2.78" length="6.88" width="7.00" shape="14.90,-206.40 14.90,-213.40 13.40,-214.90 6.40,-214.90 6.64,-212.30 7.34,-210.18 8.53,-208.53 10.18,-207.34 12.30,-206.64"/>
    </edge>
    <edge id=":J13_w3" function="walkingarea">
        <lane id=":J13_w3_0" index="0" allow="pedestrian" speed="2.78" length="6.88" width="7.00" shape="-6.40,-214.90 -13.40,-214.90 -14.90,-213.40 -14.90,-206.40 -12.30,-206.64 -10.18,-207.34 -8.53,-208.53 -7.34,-210.18 -6.64,-212.30"/>
    </edge>
    <edge id=":J14_w0" function="walkingarea">
        <lane id=":J14_w0_0" index="0" allow="pedestrian" speed="2.78" length="19.80" width="7.00" shape="-6.40,-100.00 -13.40,-100.00 13.40,-100.00 6.40,-100.00"/>
    </edge>
    <edge id=":J15_w0" function="walkingarea">
        <lane id=":J15_w0_0" index="0" allow="pedestrian" speed="2.78" length="19.80" width="7.00" shape="100.00,-193.60 100.00,-186.60 100.00,-213.40 100.00,-206.40"/>
    </edge>
    <edge id=":J16_w0" function="walkingarea">
        <lane id=":J16_w0_0" index="0" allow="pedestrian" speed="2.78" length="19.80" width="7.00" shape="-100.00,-206.40 -100.00,-213.40 -100.00,-186.60 -100.00,-193.60"/>
    </edge>
    <edge id=":J17_0" function="internal">
        <lane id=":J17_0_0" index="0" disallow="pedestrian" speed="8.53" length="8.81" shape="595.20,-185.10 594.57,-189.52 592.68,-192.68 592.10,-193.02"/>
    </edge>
    <edge id=":J17_1" function="internal">
        <lane id=":J17_1_0" index="0" disallow="pedestrian" speed="13.89" length="29.80" shape="595.20,-185.10 595.20,-214.90"/>
    </edge>
    <edge id=":J17_2" function="internal">
        <lane id=":J17_2_0" index="0" disallow="pedestrian" speed="10.78" length="12.74" shape="598.40,-185.10 599.43,-192.32 602.23,-196.99"/>
    </edge>
    <edge id=":J17_12" function="internal">
        <lane id=":J17_12_0" index="0" disallow="pedestrian" speed="8.53" length="7.47" shape="592.10,-193.02 589.52,-194.57 585.10,-195.20"/>
    </edge>
    <edge id=":J17_13" function="internal">
        <lane id=":J17_13_0" index="0" disallow="pedestrian" speed="10.78" length="13.87" shape="602.23,-196.99 602.52,-197.47 607.68,-200.57 614.90,-201.60"/>
    </edge>
    <edge id=":J17_3" function="internal">
        <lane id=":J17_3_0" index="0" disallow="pedestrian" speed="8.53" length="8.81" shape="614.90,-195.20 610.48,-194.57 607.33,-192.67 606.98,-192.10"/>
    </edge>
    <edge id=":J17_4" function="internal">
        <lane id=":J17_4_0" index="0" disallow="pedestrian" speed="13.89" length="29.80" shape="614.90,-195.20 585.10,-195.20"/>
    </edge>
    <edge id=":J17_5" function="internal">
        <lane id=":J17_5_0" index="0" disallow="pedestrian" speed="10.78" length="12.74" shape="614.90,-198.40 607.68,-199.43 603.01,-202.23"/>
    </edge>
    <edge id=":J17_14" function="internal">
        <lane id=":J17_14_0" index="0" disallow="pedestrian" speed="8.53" length="7.47" shape="606.98,-192.10 605.43,-189.52 604.80,-185.10"/>
    </edge>
    <edge id=":J17_15" function="internal">
        <lane id=":J17_15_0" index="0" disallow="pedestrian" speed="10.78" length="13.87" shape="603.01,-202.23 602.52,-202.53 599.43,-207.68 598.40,-214.90"/>
    </edge>
    <edge id=":J17_6" function="internal">
        <lane id=":J17_6_0" index="0" disallow="pedestrian" speed="8.53" length="8.81" shape="604.80,-214.90 605.43,-210.48 607.32,-207.32 607.90,-206.98"/>
    </edge>
    <edge id=":J17_7" function="internal">
        <lane id=":J17_7_0" index="0" disallow="pedestrian" speed="13.89" length="29.80" shape="604.80,-214.90 604.80,-185.10"/>
    </edge>
    <edge id=":J17_8" function="internal">
        <lane id=":J17_8_0" index="0" disallow="pedestrian" speed="10.78" length="12.74" shape="601.60,-214.90 600.57,-207.68 597.77,-203.01"/>
    </edge>
    <edge id=":J17_16" function="internal">
        <lane id=":J17_16_0" index="0" disallow="pedestrian" speed="8.53" length="7.47" shape="607.90,-206.98 610.48,-205.43 614.90,-204.80"/>
    </edge>
    <edge id=":J17_17" function="internal">
        <lane id=":J17_17_0" index="0" disallow="pedestrian" speed="10.78" length="13.87" shape="597.77,-203.01 597.48,-202.53 592.32,-199.43 585.10,-198.40"/>
    </edge>
    <edge id=":J17_9" function="internal">
        <lane id=":J17_9_0" index="0" disallow="pedestrian" speed="8.53" length="8.81" shape="585.10,-204.80 589.52,-205.43 592.67,-207.33 593.02,-207.90"/>
    </edge>
    <edge id=":J17_10" function="internal">
        <lane id=":J17_10_0" index="0" disallow="pedestrian" speed="13.89" length="29.80" shape="585.10,-204.80 614.90,-204.80"/>
    </edge>
    <edge id=":J17_11" function="internal">
        <lane id=":J17_11_0" index="0" disallow="pedestrian" speed="10.78" length="12.74" shape="585.10,-201.60 592.32,-200.57 596.99,-197.77"/>
    </edge>
    <edge id=":J17_18" function="internal">
        <lane id=":J17_18_0" index="0" disallow="pedestrian" speed="8.53" length="7.47" shape="593.02,-207.90 594.57,-210.48 595.20,-214.90"/>
    </edge>
    <edge id=":J17_19" function="internal">
        <lane id=":J17_19_0" index="0" disallow="pedestrian" speed="10.78" length="13.87" shape="596.99,-197.77 597.48,-197.47 600.57,-192.32 601.60,-185.10"/>
    </edge>
    <edge id=":J17_c0" function="crossing" crossingEdges="TL7_N N_TL7">
        <lane id=":J17_c0_0" index="0" allow="pedestrian" speed="2.78" length="12.80" width="7.00" shape="606.40,-188.60 593.60,-188.60"/>
    </edge>
    <edge id=":J17_c1" function="crossing" crossingEdges="TL7_E E_TL7">
        <lane id=":J17_c1_0" index="0" allow="pedestrian" speed="2.78" length="12.80" width="7.00" shape="611.40,-206.40 611.40,-193.60"/>
    </edge>
    <edge id=":J17_c2" function="crossing" crossingEdges="TL7_TL5 TL5_TL7">
        <lane id=":J17_c2_0" index="0" allow="pedestrian" speed="2.78" length="12.80" width="7.00" shape="593.60,-211.40 606.40,-211.40"/>
    </edge>
    <edge id=":J17_c3" function="crossing" crossingEdges="TL7_W W_TL7">
        <lane id=":J17_c3_0" index="0" allow="pedestrian" speed="2.78" length="12.80" width="7.00" shape="588.60,-193.60 588.60,-206.40"/>
    </edge>
    <edge id=":J17_w0" function="walkingarea">
        <lane id=":J17_w0_0" index="0" allow="pedestrian" speed="2.78" length="6.88" width="7.00" shape="585.10,-193.60 585.10,-186.60 586.60,-185.10 593.60,-185.10 593.36,-187.70 592.66,-189.82 591.48,-191.47 589.82,-192.66 587.70,-193.36"/>
    </edge>
    <edge id=":J17_w1" function="walkingarea">
        <lane id=":J17_w1_0" index="0" allow="pedestrian" speed="2.78" length="6.88" width="7.00" shape="606.40,-185.10 613.40,-185.10 614.90,-186.60 614.90,-193.60 612.30,-193.36 610.18,-192.66 608.52,-191.47 607.34,-189.82 606.64,-187.70"/>
    </edge>
    <edge id=":J17_w2" function="walkingarea">
        <lane id=":J17_w2_0" index="0" allow="pedestrian" speed="2.78" length="6.88" width="7.00" shape="614.90,-206.40 614.90,-213.40 613.40,-214.90 606.40,-214.90 606.64,-212.30 607.34,-210.18 608.52,-208.53 610.18,-207.34 612.30,-206.64"/>
    </edge>
    <edge id=":J17_w3" function="walkingarea">
        <lane id=":J17_w3_0" index="0" allow="pedestrian" speed="2.78" length="6.88" width="7.00" shape="593.60,-214.90 586.60,-214.90 585.10,-213.40 585.10,-206.40 587.70,-206.64 589.82,-207.34 591.48,-208.53 592.66,-210.18 593.36,-212.30"/>
    </edge>
    <edge id=":J18_0" function="internal">
        <lane id=":J18_0_0" index="0" disallow="pedestrian" speed="8.53" length="8.81" shape="595.20,-785.10 594.57,-789.52 592.68,-792.67 592.10,-793.02"/>
    </edge>
    <edge id=":J18_1" function="internal">
        <lane id=":J18_1_0" index="0" disallow="pedestrian" speed="13.89" length="29.80" shape="595.20,-785.10 595.20,-814.90"/>
    </edge>
    <edge id=":J18_2" function="internal">
        <lane id=":J18_2_0" index="0" disallow="pedestrian" speed="10.78" length="12.74" shape="598.40,-785.10 599.43,-792.32 602.23,-796.99"/>
    </edge>
    <edge id=":J18_12" function="internal">
        <lane id=":J18_12_0" index="0" disallow="pedestrian" speed="8.53" length="7.47" shape="592.10,-793.02 589.52,-794.57 585.10,-795.20"/>
    </edge>
    <edge id=":J18_13" function="internal">
        <lane id=":J18_13_0" index="0" disallow="pedestrian" speed="10.78" length="13.87" shape="602.23,-796.99 602.52,-797.48 607.68,-800.57 614.90,-801.60"/>
    </edge>
    <edge id=":J18_3" function="internal">
        <lane id=":J18_3_0" index="0" disallow="pedestrian" speed="8.53" length="8.81" shape="614.90,-795.20 610.48,-794.57 607.33,-792.68 606.98,-792.10"/>
    </edge>
    <edge id=":J18_4" function="internal">
        <lane id=":J18_4_0" index="0" disallow="pedestrian" speed="13.89" length="29.80" shape="614.90,-795.20 585.10,-795.20"/>
    </edge>
    <edge id=":J18_5" function="internal">
        <lane id=":J18_5_0" index="0" disallow="pedestrian" speed="10.78" length="12.74" shape="614.90,-798.40 607.68,-799.43 603.01,-802.23"/>
    </edge>
    <edge id=":J18_14" function="internal">
        <lane id=":J18_14_0" index="0" disallow="pedestrian" speed="8.53" length="7.47" shape="606.98,-792.10 605.43,-789.52 604.80,-785.10"/>
    </edge>
    <edge id=":J18_15" function="internal">
        <lane id=":J18_15_0" index="0" disallow="pedestrian" speed="10.78" length="13.87" shape="603.01,-802.23 602.52,-802.52 599.43,-807.68 598.40,-814.90"/>
    </edge>
    <edge id=":J18_6" function="internal">
        <lane id=":J18_6_0" index="0" disallow="pedestrian" speed="8.53" length="8.81" shape="604.80,-814.90 605.43,-810.48 607.32,-807.33 607.90,-806.98"/>
    </edge>
    <edge id=":J18_7" function="internal">
        <lane id=":J18_7_0" index="0" disallow="pedestrian" speed="13.89" length="29.80" shape="604.80,-814.90 604.80,-785.10"/>
    </edge>
    <edge id=":J18_8" function="internal">
        <lane id=":J18_8_0" index="0" disallow="pedestrian" speed="10.78" length="12.74" shape="601.60,-814.90 600.57,-807.68 597.77,-803.01"/>
    </edge>
    <edge id=":J18_16" function="internal">